<?xml version="1.0"?>

<!-- generated on 03/31/16 23:50:15 by SUMO netconvert Version 0.11.1
<configuration>

    <input>
        <osm-files value="C:\gtk\gtk.net.xml"/>
    </input>

    <output>
        <output-file value="C:\gtk\gtk.net.xml"/>
    </output>

    <projection>
        <proj.utm value="true"/>
    </projection>

    <processing>
        <remove-isolated value="true"/>
    </processing>

</configuration>
-->

<net>

   <location netOffset="-291721.25,-5707968.50" convBoundary="0.00,0.00,1167.16,1169.50" origBoundary="0.000042,51.484810,0.016471,51.495056" projParameter="+proj=utm +zone=31 +ellps=WGS84 +datum=WGS84 +units=m +no_defs"/>

   <edge id=":-1030128534_0" function="internal">
      <lanes>
         <lane id=":-1030128534_0_0" depart="0" maxspeed="2.78" length="4.82" shape="1021.97,68.89 1022.99,69.98 1023.20,70.87 1022.61,71.58 1021.22,72.11"/>
      </lanes>
   </edge>

   <edge id=":-1030128535_0" function="internal">
      <lanes>
         <lane id=":-1030128535_0_0" depart="0" maxspeed="5.56" length="0.10" shape="905.14,45.11 905.12,45.11"/>
      </lanes>
   </edge>

   <edge id=":-1030128535_1" function="internal">
      <lanes>
         <lane id=":-1030128535_1_0" depart="0" maxspeed="2.78" length="4.82" shape="905.14,45.11 904.12,44.03 903.90,43.14 904.49,42.42 905.88,41.89"/>
      </lanes>
   </edge>

   <edge id=":-1030128535_2" function="internal">
      <lanes>
         <lane id=":-1030128535_2_0" depart="0" maxspeed="5.56" length="0.10" shape="905.87,41.89 905.88,41.89"/>
      </lanes>
   </edge>

   <edge id=":-1030128535_3" function="internal">
      <lanes>
         <lane id=":-1030128535_3_0" depart="0" maxspeed="8.33" length="4.82" shape="905.87,41.89 906.89,42.98 907.11,43.87 906.52,44.58 905.12,45.11"/>
      </lanes>
   </edge>

   <edge id=":-1030139135_0" function="internal">
      <lanes>
         <lane id=":-1030139135_0_0" depart="0" maxspeed="18.06" length="5.16" shape="746.81,172.53 746.60,171.10 745.97,170.15 744.94,169.67 743.50,169.65"/>
      </lanes>
   </edge>

   <edge id=":-1030139135_1" function="internal">
      <lanes>
         <lane id=":-1030139135_1_0" depart="0" maxspeed="18.06" length="13.13" shape="746.81,172.53 747.13,168.11 748.17,164.87 749.91,162.82 752.36,161.94"/>
      </lanes>
   </edge>

   <edge id=":-1030139135_2" function="internal">
      <lanes>
         <lane id=":-1030139135_2_0" depart="0" maxspeed="8.33" length="4.82" shape="746.81,172.53 747.63,171.28 748.45,170.87 749.28,171.27 750.11,172.51"/>
      </lanes>
   </edge>

   <edge id=":-1030139135_3" function="internal">
      <lanes>
         <lane id=":-1030139135_3_0" depart="0" maxspeed="18.06" length="5.52" shape="753.03,168.51 751.74,168.87 750.83,169.66 750.29,170.87 750.11,172.51"/>
      </lanes>
   </edge>

   <edge id=":-1030139135_4" function="internal">
      <lanes>
         <lane id=":-1030139135_4_0" depart="0" maxspeed="27.78" length="9.59" shape="753.03,168.51 743.50,169.65"/>
      </lanes>
   </edge>

   <edge id=":-1030139135_5" function="internal">
      <lanes>
         <lane id=":-1030139135_5_0" depart="0" maxspeed="27.78" length="9.70" shape="752.70,165.22 743.07,166.38"/>
      </lanes>
   </edge>

   <edge id=":-1030139135_6" function="internal">
      <lanes>
         <lane id=":-1030139135_6_0" depart="0" maxspeed="27.78" length="4.82" shape="752.70,165.22 751.38,164.53 750.89,163.75 751.21,162.89 752.36,161.94"/>
      </lanes>
   </edge>

   <edge id=":-1030139135_7" function="internal">
      <lanes>
         <lane id=":-1030139135_7_0" depart="0" maxspeed="27.78" length="9.91" shape="742.19,159.84 752.03,158.66"/>
      </lanes>
   </edge>

   <edge id=":-1030139135_8" function="internal">
      <lanes>
         <lane id=":-1030139135_8_0" depart="0" maxspeed="27.78" length="9.81" shape="742.63,163.11 752.36,161.94"/>
      </lanes>
   </edge>

   <edge id=":-1030139135_9" function="internal">
      <lanes>
         <lane id=":-1030139135_9_0" depart="0" maxspeed="18.06" length="13.99" shape="742.63,163.11 745.88,163.32 748.21,164.96 749.62,168.02 750.11,172.51"/>
      </lanes>
   </edge>

   <edge id=":-1030139135_10" function="internal">
      <lanes>
         <lane id=":-1030139135_10_0" depart="0" maxspeed="27.78" length="4.82" shape="742.63,163.11 743.96,163.76 744.48,164.53 744.18,165.40 743.07,166.38"/>
      </lanes>
   </edge>

   <edge id=":-1030139635_0" function="internal">
      <lanes>
         <lane id=":-1030139635_0_0" depart="0" maxspeed="13.89" length="9.77" shape="748.75,252.73 739.00,253.32"/>
      </lanes>
   </edge>

   <edge id=":-1030139635_1" function="internal">
      <lanes>
         <lane id=":-1030139635_1_0" depart="0" maxspeed="11.11" length="10.47" shape="748.75,252.73 745.94,252.56 743.84,251.51 742.46,249.56 741.78,246.72"/>
      </lanes>
   </edge>

   <edge id=":-1030139635_2" function="internal">
      <lanes>
         <lane id=":-1030139635_2_0" depart="0" maxspeed="13.89" length="4.82" shape="748.75,252.73 747.45,252.01 746.96,251.23 747.30,250.37 748.46,249.44"/>
      </lanes>
   </edge>

   <edge id=":-1030139635_3" function="internal">
      <lanes>
         <lane id=":-1030139635_3_0" depart="0" maxspeed="11.11" length="5.19" shape="745.06,246.39 745.40,247.83 746.07,248.81 747.10,249.35 748.46,249.44"/>
      </lanes>
   </edge>

   <edge id=":-1030139635_4" function="internal">
      <lanes>
         <lane id=":-1030139635_4_0" depart="0" maxspeed="11.11" length="10.65" shape="745.06,246.39 744.93,249.34 743.87,251.47 741.90,252.80 739.00,253.32"/>
      </lanes>
   </edge>

   <edge id=":-1030139635_5" function="internal">
      <lanes>
         <lane id=":-1030139635_5_0" depart="0" maxspeed="8.33" length="4.82" shape="745.06,246.39 744.36,247.71 743.58,248.20 742.72,247.87 741.78,246.72"/>
      </lanes>
   </edge>

   <edge id=":-1030139635_6" function="internal">
      <lanes>
         <lane id=":-1030139635_6_0" depart="0" maxspeed="11.11" length="5.08" shape="738.89,250.02 740.27,249.77 741.21,249.14 741.71,248.12 741.78,246.72"/>
      </lanes>
   </edge>

   <edge id=":-1030139635_7" function="internal">
      <lanes>
         <lane id=":-1030139635_7_0" depart="0" maxspeed="13.89" length="9.59" shape="738.89,250.02 748.46,249.44"/>
      </lanes>
   </edge>

   <edge id=":-1030139635_8" function="internal">
      <lanes>
         <lane id=":-1030139635_8_0" depart="0" maxspeed="13.89" length="4.82" shape="738.89,250.02 740.15,250.80 740.59,251.61 740.21,252.45 739.00,253.32"/>
      </lanes>
   </edge>

   <edge id=":-1032766635_0" function="internal">
      <lanes>
         <lane id=":-1032766635_0_0" depart="0" maxspeed="27.78" length="9.16" shape="513.34,246.02 510.98,237.17"/>
      </lanes>
   </edge>

   <edge id=":-1032766635_1" function="internal">
      <lanes>
         <lane id=":-1032766635_1_0" depart="0" maxspeed="27.78" length="9.26" shape="516.54,245.22 514.16,236.27"/>
      </lanes>
   </edge>

   <edge id=":-1032766635_2" function="internal">
      <lanes>
         <lane id=":-1032766635_2_0" depart="0" maxspeed="14.58" length="6.62" shape="516.54,245.22 516.00,242.63 515.82,240.72 516.02,239.48 516.59,238.92"/>
      </lanes>
   </edge>

   <edge id=":-1032766635_3" function="internal">
      <lanes>
         <lane id=":-1032766635_3_0" depart="0" maxspeed="27.78" length="4.82" shape="516.54,245.22 517.04,243.82 517.74,243.22 518.64,243.42 519.74,244.42"/>
      </lanes>
   </edge>

   <edge id=":-1032766635_4" function="internal">
      <lanes>
         <lane id=":-1032766635_4_0" depart="0" maxspeed="14.58" length="6.37" shape="517.54,242.08 519.63,241.65 521.23,241.77 522.33,242.42 522.94,243.62"/>
      </lanes>
   </edge>

   <edge id=":-1032766635_5" function="internal">
      <lanes>
         <lane id=":-1032766635_5_0" depart="0" maxspeed="14.58" length="7.08" shape="517.54,242.08 516.72,241.90 515.89,240.87 515.03,238.99 514.16,236.27"/>
      </lanes>
   </edge>

   <edge id=":-1032766635_6" function="internal">
      <lanes>
         <lane id=":-1032766635_6_0" depart="0" maxspeed="1.39" length="4.82" shape="517.54,242.08 516.11,241.65 515.48,240.97 515.64,240.06 516.59,238.92"/>
      </lanes>
   </edge>

   <edge id=":-1032766635_7" function="internal">
      <lanes>
         <lane id=":-1032766635_7_0" depart="0" maxspeed="14.58" length="6.63" shape="520.51,234.48 520.58,235.89 519.95,237.10 518.62,238.11 516.59,238.92"/>
      </lanes>
   </edge>

   <edge id=":-1032766635_8" function="internal">
      <lanes>
         <lane id=":-1032766635_8_0" depart="0" maxspeed="27.78" length="9.46" shape="520.51,234.48 522.94,243.62"/>
      </lanes>
   </edge>

   <edge id=":-1032766635_9" function="internal">
      <lanes>
         <lane id=":-1032766635_9_0" depart="0" maxspeed="27.78" length="9.36" shape="517.33,235.38 519.74,244.42"/>
      </lanes>
   </edge>

   <edge id=":-1032766635_10" function="internal">
      <lanes>
         <lane id=":-1032766635_10_0" depart="0" maxspeed="27.78" length="4.82" shape="517.33,235.38 516.87,236.79 516.19,237.41 515.29,237.24 514.16,236.27"/>
      </lanes>
   </edge>

   <edge id=":-1032775624_0" function="internal">
      <lanes>
         <lane id=":-1032775624_0_0" depart="0" maxspeed="7.64" length="4.00" shape="528.42,242.10 528.16,240.74 528.21,239.70 528.56,238.98 529.22,238.58"/>
      </lanes>
   </edge>

   <edge id=":-1032775624_1" function="internal">
      <lanes>
         <lane id=":-1032775624_1_0" depart="0" maxspeed="13.89" length="9.50" shape="528.42,242.10 525.94,232.93"/>
      </lanes>
   </edge>

   <edge id=":-1032775624_2" function="internal">
      <lanes>
         <lane id=":-1032775624_2_0" depart="0" maxspeed="13.89" length="4.82" shape="528.42,242.10 528.89,240.69 529.58,240.08 530.48,240.26 531.60,241.24"/>
      </lanes>
   </edge>

   <edge id=":-1032775624_3" function="internal">
      <lanes>
         <lane id=":-1032775624_3_0" depart="0" maxspeed="13.89" length="9.50" shape="529.13,232.07 531.60,241.24"/>
      </lanes>
   </edge>

   <edge id=":-1032775624_4" function="internal">
      <lanes>
         <lane id=":-1032775624_4_0" depart="0" maxspeed="7.64" length="6.84" shape="529.13,232.07 529.75,234.74 529.97,236.72 529.79,238.00 529.22,238.58"/>
      </lanes>
   </edge>

   <edge id=":-1032775624_5" function="internal">
      <lanes>
         <lane id=":-1032775624_5_0" depart="0" maxspeed="13.89" length="4.82" shape="529.13,232.07 528.65,233.48 527.96,234.09 527.06,233.91 525.94,232.93"/>
      </lanes>
   </edge>

   <edge id=":-1032775624_6" function="internal">
      <lanes>
         <lane id=":-1032775624_6_0" depart="0" maxspeed="7.64" length="3.81" shape="528.28,235.42 527.55,235.44 526.92,235.03 526.39,234.19 525.94,232.93"/>
      </lanes>
   </edge>

   <edge id=":-1032775624_7" function="internal">
      <lanes>
         <lane id=":-1032775624_7_0" depart="0" maxspeed="7.64" length="7.08" shape="528.28,235.42 529.09,235.60 529.92,236.63 530.76,238.51 531.60,241.24"/>
      </lanes>
   </edge>

   <edge id=":-1032775624_8" function="internal">
      <lanes>
         <lane id=":-1032775624_8_0" depart="0" maxspeed="1.39" length="4.82" shape="528.28,235.42 529.70,235.85 530.33,236.53 530.17,237.44 529.22,238.58"/>
      </lanes>
   </edge>

   <edge id=":-1376291183_0" function="internal">
      <lanes>
         <lane id=":-1376291183_0_0" depart="0" maxspeed="13.89" length="4.82" shape="1.34,149.97 -0.06,150.49 -0.97,150.34 -1.39,149.52 -1.34,148.03"/>
      </lanes>
   </edge>

   <edge id=":-1595137450_0" function="internal">
      <lanes>
         <lane id=":-1595137450_0_0" depart="0" maxspeed="8.33" length="0.42" shape="911.55,1038.86 911.24,1038.57"/>
      </lanes>
   </edge>

   <edge id=":-1595137450_1" function="internal">
      <lanes>
         <lane id=":-1595137450_1_0" depart="0" maxspeed="8.33" length="4.82" shape="911.55,1038.86 911.13,1037.43 911.34,1036.53 912.18,1036.16 913.66,1036.32"/>
      </lanes>
   </edge>

   <edge id=":-1595137450_2" function="internal">
      <lanes>
         <lane id=":-1595137450_2_0" depart="0" maxspeed="8.33" length="0.10" shape="913.66,1036.32 913.66,1036.32"/>
      </lanes>
   </edge>

   <edge id=":-1595137450_3" function="internal">
      <lanes>
         <lane id=":-1595137450_3_0" depart="0" maxspeed="8.33" length="4.82" shape="913.66,1036.32 913.90,1037.79 913.57,1038.66 912.69,1038.92 911.24,1038.57"/>
      </lanes>
   </edge>

   <edge id=":-1654694706_0" function="internal">
      <lanes>
         <lane id=":-1654694706_0_0" depart="0" maxspeed="27.78" length="9.41" shape="621.60,643.50 621.94,652.91"/>
      </lanes>
   </edge>

   <edge id=":-1654694706_1" function="internal">
      <lanes>
         <lane id=":-1654694706_1_0" depart="0" maxspeed="27.78" length="9.49" shape="618.30,643.58 618.65,653.06"/>
      </lanes>
   </edge>

   <edge id=":-1654694706_2" function="internal">
      <lanes>
         <lane id=":-1654694706_2_0" depart="0" maxspeed="16.67" length="6.80" shape="618.30,643.58 618.48,646.31 618.87,648.23 619.46,649.34 620.26,649.64"/>
      </lanes>
   </edge>

   <edge id=":-1654694706_3" function="internal">
      <lanes>
         <lane id=":-1654694706_3_0" depart="0" maxspeed="16.67" length="7.10" shape="619.87,646.36 619.22,646.85 618.80,648.13 618.61,650.20 618.65,653.06"/>
      </lanes>
   </edge>

   <edge id=":-1654694706_4" function="internal">
      <lanes>
         <lane id=":-1654694706_4_0" depart="0" maxspeed="5.56" length="4.82" shape="619.87,646.36 621.19,647.04 621.70,647.81 621.39,648.67 620.26,649.64"/>
      </lanes>
   </edge>

   <edge id=":-1654694707_0" function="internal">
      <lanes>
         <lane id=":-1654694707_0_0" depart="0" maxspeed="5.56" length="3.84" shape="616.04,650.14 616.67,650.27 617.12,650.83 617.39,651.83 617.48,653.27"/>
      </lanes>
   </edge>

   <edge id=":-1654694707_1" function="internal">
      <lanes>
         <lane id=":-1654694707_1_0" depart="0" maxspeed="5.56" length="5.02" shape="616.04,650.14 611.02,650.15"/>
      </lanes>
   </edge>

   <edge id=":-1654694707_2" function="internal">
      <lanes>
         <lane id=":-1654694707_2_0" depart="0" maxspeed="5.56" length="7.38" shape="616.04,650.14 615.24,649.80 614.65,648.58 614.26,646.46 614.08,643.46"/>
      </lanes>
   </edge>

   <edge id=":-1654694707_3" function="internal">
      <lanes>
         <lane id=":-1654694707_3_0" depart="0" maxspeed="5.56" length="4.82" shape="616.04,650.14 614.71,649.46 614.21,648.69 614.52,647.83 615.65,646.86"/>
      </lanes>
   </edge>

   <edge id=":-1654694707_4" function="internal">
      <lanes>
         <lane id=":-1654694707_4_0" depart="0" maxspeed="5.56" length="4.26" shape="617.38,643.39 617.30,644.83 616.98,645.89 616.43,646.56 615.65,646.86"/>
      </lanes>
   </edge>

   <edge id=":-1654694707_5" function="internal">
      <lanes>
         <lane id=":-1654694707_5_0" depart="0" maxspeed="5.56" length="9.88" shape="617.38,643.39 617.48,653.27"/>
      </lanes>
   </edge>

   <edge id=":-1654694707_6" function="internal">
      <lanes>
         <lane id=":-1654694707_6_0" depart="0" maxspeed="5.56" length="10.64" shape="617.38,643.39 617.04,646.35 615.87,648.46 613.86,649.73 611.02,650.15"/>
      </lanes>
   </edge>

   <edge id=":-1654694707_7" function="internal">
      <lanes>
         <lane id=":-1654694707_7_0" depart="0" maxspeed="5.56" length="4.82" shape="617.38,643.39 616.58,644.64 615.77,645.08 614.93,644.68 614.08,643.46"/>
      </lanes>
   </edge>

   <edge id=":-1654694707_8" function="internal">
      <lanes>
         <lane id=":-1654694707_8_0" depart="0" maxspeed="5.56" length="5.24" shape="611.02,646.86 612.39,646.65 613.35,646.01 613.92,644.95 614.08,643.46"/>
      </lanes>
   </edge>

   <edge id=":-1654694707_9" function="internal">
      <lanes>
         <lane id=":-1654694707_9_0" depart="0" maxspeed="5.56" length="4.63" shape="611.02,646.86 615.65,646.86"/>
      </lanes>
   </edge>

   <edge id=":-1654694707_10" function="internal">
      <lanes>
         <lane id=":-1654694707_10_0" depart="0" maxspeed="5.56" length="10.39" shape="611.02,646.86 613.85,647.26 615.87,648.46 617.08,650.46 617.48,653.27"/>
      </lanes>
   </edge>

   <edge id=":-1654694707_11" function="internal">
      <lanes>
         <lane id=":-1654694707_11_0" depart="0" maxspeed="5.56" length="4.80" shape="611.02,646.86 612.25,647.69 612.66,648.51 612.25,649.33 611.02,650.15"/>
      </lanes>
   </edge>

   <edge id=":-1654694707_12" function="internal">
      <lanes>
         <lane id=":-1654694707_12_0" depart="0" maxspeed="5.56" length="5.06" shape="614.18,653.26 613.98,651.90 613.39,650.93 612.40,650.34 611.02,650.15"/>
      </lanes>
   </edge>

   <edge id=":-1654694707_13" function="internal">
      <lanes>
         <lane id=":-1654694707_13_0" depart="0" maxspeed="5.56" length="9.79" shape="614.18,653.26 614.08,643.46"/>
      </lanes>
   </edge>

   <edge id=":-1654694707_14" function="internal">
      <lanes>
         <lane id=":-1654694707_14_0" depart="0" maxspeed="5.56" length="6.82" shape="614.18,653.26 614.28,650.52 614.56,648.55 615.01,647.33 615.65,646.86"/>
      </lanes>
   </edge>

   <edge id=":-1654694707_15" function="internal">
      <lanes>
         <lane id=":-1654694707_15_0" depart="0" maxspeed="5.56" length="4.82" shape="614.18,653.26 615.01,652.02 615.83,651.61 616.66,652.03 617.48,653.27"/>
      </lanes>
   </edge>

   <edge id=":-1654694769_0" function="internal">
      <lanes>
         <lane id=":-1654694769_0_0" depart="0" maxspeed="27.78" length="9.50" shape="619.41,554.64 619.64,564.13"/>
      </lanes>
   </edge>

   <edge id=":-1654694769_1" function="internal">
      <lanes>
         <lane id=":-1654694769_1_0" depart="0" maxspeed="27.78" length="9.50" shape="616.11,554.71 616.34,564.21"/>
      </lanes>
   </edge>

   <edge id=":-1654694769_2" function="internal">
      <lanes>
         <lane id=":-1654694769_2_0" depart="0" maxspeed="16.67" length="7.00" shape="616.11,554.71 616.28,557.53 616.63,559.54 617.16,560.75 617.88,561.15"/>
      </lanes>
   </edge>

   <edge id=":-1654694769_3" function="internal">
      <lanes>
         <lane id=":-1654694769_3_0" depart="0" maxspeed="16.67" length="6.91" shape="617.88,557.85 617.14,558.25 616.65,559.44 616.38,561.43 616.34,564.21"/>
      </lanes>
   </edge>

   <edge id=":-1654694769_4" function="internal">
      <lanes>
         <lane id=":-1654694769_4_0" depart="0" maxspeed="5.56" length="4.82" shape="617.88,557.85 619.11,558.68 619.53,559.50 619.11,560.33 617.88,561.15"/>
      </lanes>
   </edge>

   <edge id=":-1654694770_0" function="internal">
      <lanes>
         <lane id=":-1654694770_0_0" depart="0" maxspeed="5.56" length="5.13" shape="612.28,564.64 612.04,563.23 611.41,562.29 610.38,561.80 608.96,561.77"/>
      </lanes>
   </edge>

   <edge id=":-1654694770_1" function="internal">
      <lanes>
         <lane id=":-1654694770_1_0" depart="0" maxspeed="5.56" length="9.78" shape="612.28,564.64 612.05,554.86"/>
      </lanes>
   </edge>

   <edge id=":-1654694770_2" function="internal">
      <lanes>
         <lane id=":-1654694770_2_0" depart="0" maxspeed="5.56" length="7.32" shape="612.28,564.64 612.32,561.67 612.59,559.55 613.08,558.27 613.81,557.85"/>
      </lanes>
   </edge>

   <edge id=":-1654694770_3" function="internal">
      <lanes>
         <lane id=":-1654694770_3_0" depart="0" maxspeed="5.56" length="4.82" shape="612.28,564.64 613.08,563.38 613.89,562.95 614.73,563.34 615.58,564.56"/>
      </lanes>
   </edge>

   <edge id=":-1654694770_4" function="internal">
      <lanes>
         <lane id=":-1654694770_4_0" depart="0" maxspeed="5.56" length="4.23" shape="613.81,561.15 614.56,561.36 615.10,562.00 615.44,563.07 615.58,564.56"/>
      </lanes>
   </edge>

   <edge id=":-1654694770_5" function="internal">
      <lanes>
         <lane id=":-1654694770_5_0" depart="0" maxspeed="5.56" length="4.90" shape="613.81,561.15 608.96,561.77"/>
      </lanes>
   </edge>

   <edge id=":-1654694770_6" function="internal">
      <lanes>
         <lane id=":-1654694770_6_0" depart="0" maxspeed="5.56" length="6.86" shape="613.81,561.15 613.10,560.76 612.57,559.58 612.22,557.61 612.05,554.86"/>
      </lanes>
   </edge>

   <edge id=":-1654694770_7" function="internal">
      <lanes>
         <lane id=":-1654694770_7_0" depart="0" maxspeed="5.56" length="4.82" shape="613.81,561.15 612.57,560.32 612.16,559.50 612.57,558.67 613.81,557.85"/>
      </lanes>
   </edge>

   <edge id=":-1654694770_8" function="internal">
      <lanes>
         <lane id=":-1654694770_8_0" depart="0" maxspeed="5.56" length="3.82" shape="615.35,554.79 615.28,556.13 615.00,557.08 614.51,557.66 613.81,557.85"/>
      </lanes>
   </edge>

   <edge id=":-1654694770_9" function="internal">
      <lanes>
         <lane id=":-1654694770_9_0" depart="0" maxspeed="5.56" length="9.78" shape="615.35,554.79 615.58,564.56"/>
      </lanes>
   </edge>

   <edge id=":-1654694770_10" function="internal">
      <lanes>
         <lane id=":-1654694770_10_0" depart="0" maxspeed="5.56" length="10.57" shape="615.35,554.79 615.01,557.54 613.83,559.62 611.81,561.03 608.96,561.77"/>
      </lanes>
   </edge>

   <edge id=":-1654694770_11" function="internal">
      <lanes>
         <lane id=":-1654694770_11_0" depart="0" maxspeed="5.56" length="4.82" shape="615.35,554.79 614.56,556.04 613.74,556.48 612.91,556.08 612.05,554.86"/>
      </lanes>
   </edge>

   <edge id=":-1654694770_12" function="internal">
      <lanes>
         <lane id=":-1654694770_12_0" depart="0" maxspeed="5.56" length="5.64" shape="608.54,558.50 610.11,558.10 611.21,557.37 611.86,556.29 612.05,554.86"/>
      </lanes>
   </edge>

   <edge id=":-1654694770_13" function="internal">
      <lanes>
         <lane id=":-1654694770_13_0" depart="0" maxspeed="5.56" length="5.31" shape="608.54,558.50 613.81,557.85"/>
      </lanes>
   </edge>

   <edge id=":-1654694770_14" function="internal">
      <lanes>
         <lane id=":-1654694770_14_0" depart="0" maxspeed="5.56" length="10.85" shape="608.54,558.50 611.56,558.55 613.74,559.58 615.08,561.59 615.58,564.56"/>
      </lanes>
   </edge>

   <edge id=":-1654694770_15" function="internal">
      <lanes>
         <lane id=":-1654694770_15_0" depart="0" maxspeed="5.56" length="4.82" shape="608.54,558.50 609.88,559.16 610.39,559.93 610.08,560.80 608.96,561.77"/>
      </lanes>
   </edge>

   <edge id=":-1654694772_0" function="internal">
      <lanes>
         <lane id=":-1654694772_0_0" depart="0" maxspeed="5.56" length="4.82" shape="557.91,559.65 556.67,558.82 556.26,558.00 556.67,557.17 557.91,556.35"/>
      </lanes>
   </edge>

   <edge id=":-1655911693_0" function="internal">
      <lanes>
         <lane id=":-1655911693_0_0" depart="0" maxspeed="5.56" length="0.10" shape="1007.97,995.96 1007.94,996.00"/>
      </lanes>
   </edge>

   <edge id=":-1655911693_1" function="internal">
      <lanes>
         <lane id=":-1655911693_1_0" depart="0" maxspeed="5.56" length="4.82" shape="1007.97,995.96 1006.57,996.47 1005.66,996.31 1005.24,995.49 1005.31,994.00"/>
      </lanes>
   </edge>

   <edge id=":-1655911693_2" function="internal">
      <lanes>
         <lane id=":-1655911693_2_0" depart="0" maxspeed="5.56" length="0.10" shape="1005.30,994.01 1005.31,994.00"/>
      </lanes>
   </edge>

   <edge id=":-1655911693_3" function="internal">
      <lanes>
         <lane id=":-1655911693_3_0" depart="0" maxspeed="5.56" length="4.82" shape="1005.30,994.01 1006.71,993.52 1007.61,993.68 1008.03,994.51 1007.94,996.00"/>
      </lanes>
   </edge>

   <edge id=":-1777432602_0" function="internal">
      <lanes>
         <lane id=":-1777432602_0_0" depart="0" maxspeed="5.56" length="5.33" shape="1097.14,391.41 1096.40,390.08 1095.46,389.43 1094.31,389.45 1092.96,390.14"/>
      </lanes>
   </edge>

   <edge id=":-1777432602_1" function="internal">
      <lanes>
         <lane id=":-1777432602_1_0" depart="0" maxspeed="5.56" length="10.44" shape="1097.14,391.41 1096.31,388.40 1096.28,385.79 1097.04,383.59 1098.59,381.79"/>
      </lanes>
   </edge>

   <edge id=":-1777432602_2" function="internal">
      <lanes>
         <lane id=":-1777432602_2_0" depart="0" maxspeed="5.56" length="4.82" shape="1097.14,391.41 1097.47,389.96 1098.10,389.28 1099.01,389.38 1100.22,390.24"/>
      </lanes>
   </edge>

   <edge id=":-1777432602_3" function="internal">
      <lanes>
         <lane id=":-1777432602_3_0" depart="0" maxspeed="5.56" length="6.31" shape="1100.67,384.34 1099.88,385.34 1099.54,386.66 1099.65,388.29 1100.22,390.24"/>
      </lanes>
   </edge>

   <edge id=":-1777432602_4" function="internal">
      <lanes>
         <lane id=":-1777432602_4_0" depart="0" maxspeed="5.56" length="9.65" shape="1100.67,384.34 1092.96,390.14"/>
      </lanes>
   </edge>

   <edge id=":-1777432602_5" function="internal">
      <lanes>
         <lane id=":-1777432602_5_0" depart="0" maxspeed="5.56" length="4.82" shape="1100.67,384.34 1099.20,384.49 1098.35,384.11 1098.15,383.21 1098.59,381.79"/>
      </lanes>
   </edge>

   <edge id=":-1777432602_6" function="internal">
      <lanes>
         <lane id=":-1777432602_6_0" depart="0" maxspeed="5.56" length="9.43" shape="1091.05,387.45 1098.59,381.79"/>
      </lanes>
   </edge>

   <edge id=":-1777432602_7" function="internal">
      <lanes>
         <lane id=":-1777432602_7_0" depart="0" maxspeed="5.56" length="11.71" shape="1091.05,387.45 1094.02,385.93 1096.54,385.88 1098.61,387.32 1100.22,390.24"/>
      </lanes>
   </edge>

   <edge id=":-1777432602_8" function="internal">
      <lanes>
         <lane id=":-1777432602_8_0" depart="0" maxspeed="5.56" length="4.82" shape="1091.05,387.45 1092.54,387.41 1093.35,387.84 1093.49,388.75 1092.96,390.14"/>
      </lanes>
   </edge>

   <edge id=":-1777432608_0" function="internal">
      <lanes>
         <lane id=":-1777432608_0_0" depart="0" maxspeed="22.22" length="4.82" shape="1149.50,378.39 1149.72,379.86 1149.39,380.72 1148.50,380.97 1147.06,380.61"/>
      </lanes>
   </edge>

   <edge id=":-1777450438_0" function="internal">
      <lanes>
         <lane id=":-1777450438_0_0" depart="0" maxspeed="5.56" length="4.82" shape="1151.95,469.41 1153.37,469.86 1153.99,470.54 1153.82,471.45 1152.86,472.59"/>
      </lanes>
   </edge>

   <edge id=":-1941932359_0" function="internal">
      <lanes>
         <lane id=":-1941932359_0_0" depart="0" maxspeed="25.00" length="7.05" shape="635.41,726.64 634.79,724.56 633.83,723.15 632.51,722.44 630.84,722.41"/>
      </lanes>
   </edge>

   <edge id=":-1941932359_1" function="internal">
      <lanes>
         <lane id=":-1941932359_1_0" depart="0" maxspeed="27.78" length="5.59" shape="638.66,726.06 637.68,720.56"/>
      </lanes>
   </edge>

   <edge id=":-1941932359_2" function="internal">
      <lanes>
         <lane id=":-1941932359_2_0" depart="0" maxspeed="22.22" length="9.11" shape="639.85,721.07 630.84,722.41"/>
      </lanes>
   </edge>

   <edge id=":-1941932359_3" function="internal">
      <lanes>
         <lane id=":-1941932359_3_0" depart="0" maxspeed="25.00" length="2.40" shape="639.85,721.07 638.95,721.12 638.28,721.06 637.86,720.87 637.68,720.56"/>
      </lanes>
   </edge>

   <edge id=":-1941932359_4" function="internal">
      <lanes>
         <lane id=":-1941932359_4_0" depart="0" maxspeed="22.22" length="9.56" shape="631.31,726.87 634.00,724.43 634.81,722.87 633.76,722.20 630.84,722.41"/>
      </lanes>
   </edge>

   <edge id=":-1941932359_5" function="internal">
      <lanes>
         <lane id=":-1941932359_5_0" depart="0" maxspeed="25.00" length="6.90" shape="631.31,726.87 632.84,725.44 633.87,724.00 634.40,722.53 634.42,721.06"/>
      </lanes>
   </edge>

   <edge id=":-1941938928_0" function="internal">
      <lanes>
         <lane id=":-1941938928_0_0" depart="0" maxspeed="15.28" length="2.87" shape="849.14,591.35 849.85,591.71 850.49,591.74 851.05,591.44 851.53,590.80"/>
      </lanes>
   </edge>

   <edge id=":-1941938928_1" function="internal">
      <lanes>
         <lane id=":-1941938928_1_0" depart="0" maxspeed="8.33" length="0.10" shape="849.14,591.35 849.13,591.34"/>
      </lanes>
   </edge>

   <edge id=":-1941938928_2" function="internal">
      <lanes>
         <lane id=":-1941938928_2_0" depart="0" maxspeed="15.28" length="2.66" shape="849.14,591.35 848.61,590.85 848.37,590.30 848.41,589.70 848.75,589.05"/>
      </lanes>
   </edge>

   <edge id=":-1941938928_3" function="internal">
      <lanes>
         <lane id=":-1941938928_3_0" depart="0" maxspeed="8.33" length="4.82" shape="849.14,591.35 848.61,589.96 848.75,589.05 849.56,588.61 851.05,588.65"/>
      </lanes>
   </edge>

   <edge id=":-1941938928_4" function="internal">
      <lanes>
         <lane id=":-1941938928_4_0" depart="0" maxspeed="15.28" length="2.66" shape="851.44,590.95 851.77,590.30 851.82,589.70 851.58,589.15 851.05,588.65"/>
      </lanes>
   </edge>

   <edge id=":-1941938928_5" function="internal">
      <lanes>
         <lane id=":-1941938928_5_0" depart="0" maxspeed="22.22" length="0.17" shape="851.44,590.95 851.53,590.80"/>
      </lanes>
   </edge>

   <edge id=":-1941938928_6" function="internal">
      <lanes>